data_image0
_chemical_formula_structural       Ag448
_chemical_formula_sum              "Ag448"
_cell_length_a       23.1365
_cell_length_b       23.1365
_cell_length_c       32.27
_cell_angle_alpha    90
_cell_angle_beta     90
_cell_angle_gamma    90

_space_group_name_H-M_alt    "P 1"
_space_group_IT_number       1

loop_
  _space_group_symop_operation_xyz
  'x, y, z'

loop_
  _atom_site_type_symbol
  _atom_site_label
  _atom_site_symmetry_multiplicity
  _atom_site_fract_x
  _atom_site_fract_y
  _atom_site_fract_z
  _atom_site_occupancy
  Ag  Ag1       1.0  0.00000  0.00000  0.30989  1.0000
  Ag  Ag2       1.0  0.12500  0.00000  0.30989  1.0000
  Ag  Ag3       1.0  0.25000  0.00000  0.30989  1.0000
  Ag  Ag4       1.0  0.37500  0.00000  0.30989  1.0000
  Ag  Ag5       1.0  0.50000  0.00000  0.30989  1.0000
  Ag  Ag6       1.0  0.62500  0.00000  0.30989  1.0000
  Ag  Ag7       1.0  0.75000  0.00000  0.30989  1.0000
  Ag  Ag8       1.0  0.87500  0.00000  0.30989  1.0000
  Ag  Ag9       1.0  0.00000  0.12500  0.30989  1.0000
  Ag  Ag10      1.0  0.12500  0.12500  0.30989  1.0000
  Ag  Ag11      1.0  0.25000  0.12500  0.30989  1.0000
  Ag  Ag12      1.0  0.37500  0.12500  0.30989  1.0000
  Ag  Ag13      1.0  0.50000  0.12500  0.30989  1.0000
  Ag  Ag14      1.0  0.62500  0.12500  0.30989  1.0000
  Ag  Ag15      1.0  0.75000  0.12500  0.30989  1.0000
  Ag  Ag16      1.0  0.87500  0.12500  0.30989  1.0000
  Ag  Ag17      1.0  0.00000  0.25000  0.30989  1.0000
  Ag  Ag18      1.0  0.12500  0.25000  0.30989  1.0000
  Ag  Ag19      1.0  0.25000  0.25000  0.30989  1.0000
  Ag  Ag20      1.0  0.37500  0.25000  0.30989  1.0000
  Ag  Ag21      1.0  0.50000  0.25000  0.30989  1.0000
  Ag  Ag22      1.0  0.62500  0.25000  0.30989  1.0000
  Ag  Ag23      1.0  0.75000  0.25000  0.30989  1.0000
  Ag  Ag24      1.0  0.87500  0.25000  0.30989  1.0000
  Ag  Ag25      1.0  0.00000  0.37500  0.30989  1.0000
  Ag  Ag26      1.0  0.12500  0.37500  0.30989  1.0000
  Ag  Ag27      1.0  0.25000  0.37500  0.30989  1.0000
  Ag  Ag28      1.0  0.37500  0.37500  0.30989  1.0000
  Ag  Ag29      1.0  0.50000  0.37500  0.30989  1.0000
  Ag  Ag30      1.0  0.62500  0.37500  0.30989  1.0000
  Ag  Ag31      1.0  0.75000  0.37500  0.30989  1.0000
  Ag  Ag32      1.0  0.87500  0.37500  0.30989  1.0000
  Ag  Ag33      1.0  0.00000  0.50000  0.30989  1.0000
  Ag  Ag34      1.0  0.12500  0.50000  0.30989  1.0000
  Ag  Ag35      1.0  0.25000  0.50000  0.30989  1.0000
  Ag  Ag36      1.0  0.37500  0.50000  0.30989  1.0000
  Ag  Ag37      1.0  0.50000  0.50000  0.30989  1.0000
  Ag  Ag38      1.0  0.62500  0.50000  0.30989  1.0000
  Ag  Ag39      1.0  0.75000  0.50000  0.30989  1.0000
  Ag  Ag40      1.0  0.87500  0.50000  0.30989  1.0000
  Ag  Ag41      1.0  0.00000  0.62500  0.30989  1.0000
  Ag  Ag42      1.0  0.12500  0.62500  0.30989  1.0000
  Ag  Ag43      1.0  0.25000  0.62500  0.30989  1.0000
  Ag  Ag44      1.0  0.37500  0.62500  0.30989  1.0000
  Ag  Ag45      1.0  0.50000  0.62500  0.30989  1.0000
  Ag  Ag46      1.0  0.62500  0.62500  0.30989  1.0000
  Ag  Ag47      1.0  0.75000  0.62500  0.30989  1.0000
  Ag  Ag48      1.0  0.87500  0.62500  0.30989  1.0000
  Ag  Ag49      1.0  0.00000  0.75000  0.30989  1.0000
  Ag  Ag50      1.0  0.12500  0.75000  0.30989  1.0000
  Ag  Ag51      1.0  0.25000  0.75000  0.30989  1.0000
  Ag  Ag52      1.0  0.37500  0.75000  0.30989  1.0000
  Ag  Ag53      1.0  0.50000  0.75000  0.30989  1.0000
  Ag  Ag54      1.0  0.62500  0.75000  0.30989  1.0000
  Ag  Ag55      1.0  0.75000  0.75000  0.30989  1.0000
  Ag  Ag56      1.0  0.87500  0.75000  0.30989  1.0000
  Ag  Ag57      1.0  0.00000  0.87500  0.30989  1.0000
  Ag  Ag58      1.0  0.12500  0.87500  0.30989  1.0000
  Ag  Ag59      1.0  0.25000  0.87500  0.30989  1.0000
  Ag  Ag60      1.0  0.37500  0.87500  0.30989  1.0000
  Ag  Ag61      1.0  0.50000  0.87500  0.30989  1.0000
  Ag  Ag62      1.0  0.62500  0.87500  0.30989  1.0000
  Ag  Ag63      1.0  0.75000  0.87500  0.30989  1.0000
  Ag  Ag64      1.0  0.87500  0.87500  0.30989  1.0000
  Ag  Ag65      1.0  0.06250  0.06250  0.37326  1.0000
  Ag  Ag66      1.0  0.18750  0.06250  0.37326  1.0000
  Ag  Ag67      1.0  0.31250  0.06250  0.37326  1.0000
  Ag  Ag68      1.0  0.43750  0.06250  0.37326  1.0000
  Ag  Ag69      1.0  0.56250  0.06250  0.37326  1.0000
  Ag  Ag70      1.0  0.68750  0.06250  0.37326  1.0000
  Ag  Ag71      1.0  0.81250  0.06250  0.37326  1.0000
  Ag  Ag72      1.0  0.93750  0.06250  0.37326  1.0000
  Ag  Ag73      1.0  0.06250  0.18750  0.37326  1.0000
  Ag  Ag74      1.0  0.18750  0.18750  0.37326  1.0000
  Ag  Ag75      1.0  0.31250  0.18750  0.37326  1.0000
  Ag  Ag76      1.0  0.43750  0.18750  0.37326  1.0000
  Ag  Ag77      1.0  0.56250  0.18750  0.37326  1.0000
  Ag  Ag78      1.0  0.68750  0.18750  0.37326  1.0000
  Ag  Ag79      1.0  0.81250  0.18750  0.37326  1.0000
  Ag  Ag80      1.0  0.93750  0.18750  0.37326  1.0000
  Ag  Ag81      1.0  0.06250  0.31250  0.37326  1.0000
  Ag  Ag82      1.0  0.18750  0.31250  0.37326  1.0000
  Ag  Ag83      1.0  0.31250  0.31250  0.37326  1.0000
  Ag  Ag84      1.0  0.43750  0.31250  0.37326  1.0000
  Ag  Ag85      1.0  0.56250  0.31250  0.37326  1.0000
  Ag  Ag86      1.0  0.68750  0.31250  0.37326  1.0000
  Ag  Ag87      1.0  0.81250  0.31250  0.37326  1.0000
  Ag  Ag88      1.0  0.93750  0.31250  0.37326  1.0000
  Ag  Ag89      1.0  0.06250  0.43750  0.37326  1.0000
  Ag  Ag90      1.0  0.18750  0.43750  0.37326  1.0000
  Ag  Ag91      1.0  0.31250  0.43750  0.37326  1.0000
  Ag  Ag92      1.0  0.43750  0.43750  0.37326  1.0000
  Ag  Ag93      1.0  0.56250  0.43750  0.37326  1.0000
  Ag  Ag94      1.0  0.68750  0.43750  0.37326  1.0000
  Ag  Ag95      1.0  0.81250  0.43750  0.37326  1.0000
  Ag  Ag96      1.0  0.93750  0.43750  0.37326  1.0000
  Ag  Ag97      1.0  0.06250  0.56250  0.37326  1.0000
  Ag  Ag98      1.0  0.18750  0.56250  0.37326  1.0000
  Ag  Ag99      1.0  0.31250  0.56250  0.37326  1.0000
  Ag  Ag100     1.0  0.43750  0.56250  0.37326  1.0000
  Ag  Ag101     1.0  0.56250  0.56250  0.37326  1.0000
  Ag  Ag102     1.0  0.68750  0.56250  0.37326  1.0000
  Ag  Ag103     1.0  0.81250  0.56250  0.37326  1.0000
  Ag  Ag104     1.0  0.93750  0.56250  0.37326  1.0000
  Ag  Ag105     1.0  0.06250  0.68750  0.37326  1.0000
  Ag  Ag106     1.0  0.18750  0.68750  0.37326  1.0000
  Ag  Ag107     1.0  0.31250  0.68750  0.37326  1.0000
  Ag  Ag108     1.0  0.43750  0.68750  0.37326  1.0000
  Ag  Ag109     1.0  0.56250  0.68750  0.37326  1.0000
  Ag  Ag110     1.0  0.68750  0.68750  0.37326  1.0000
  Ag  Ag111     1.0  0.81250  0.68750  0.37326  1.0000
  Ag  Ag112     1.0  0.93750  0.68750  0.37326  1.0000
  Ag  Ag113     1.0  0.06250  0.81250  0.37326  1.0000
  Ag  Ag114     1.0  0.18750  0.81250  0.37326  1.0000
  Ag  Ag115     1.0  0.31250  0.81250  0.37326  1.0000
  Ag  Ag116     1.0  0.43750  0.81250  0.37326  1.0000
  Ag  Ag117     1.0  0.56250  0.81250  0.37326  1.0000
  Ag  Ag118     1.0  0.68750  0.81250  0.37326  1.0000
  Ag  Ag119     1.0  0.81250  0.81250  0.37326  1.0000
  Ag  Ag120     1.0  0.93750  0.81250  0.37326  1.0000
  Ag  Ag121     1.0  0.06250  0.93750  0.37326  1.0000
  Ag  Ag122     1.0  0.18750  0.93750  0.37326  1.0000
  Ag  Ag123     1.0  0.31250  0.93750  0.37326  1.0000
  Ag  Ag124     1.0  0.43750  0.93750  0.37326  1.0000
  Ag  Ag125     1.0  0.56250  0.93750  0.37326  1.0000
  Ag  Ag126     1.0  0.68750  0.93750  0.37326  1.0000
  Ag  Ag127     1.0  0.81250  0.93750  0.37326  1.0000
  Ag  Ag128     1.0  0.93750  0.93750  0.37326  1.0000
  Ag  Ag129     1.0  0.00000  0.00000  0.43663  1.0000
  Ag  Ag130     1.0  0.12500  0.00000  0.43663  1.0000
  Ag  Ag131     1.0  0.25000  0.00000  0.43663  1.0000
  Ag  Ag132     1.0  0.37500  0.00000  0.43663  1.0000
  Ag  Ag133     1.0  0.50000  0.00000  0.43663  1.0000
  Ag  Ag134     1.0  0.62500  0.00000  0.43663  1.0000
  Ag  Ag135     1.0  0.75000  0.00000  0.43663  1.0000
  Ag  Ag136     1.0  0.87500  0.00000  0.43663  1.0000
  Ag  Ag137     1.0  0.00000  0.12500  0.43663  1.0000
  Ag  Ag138     1.0  0.12500  0.12500  0.43663  1.0000
  Ag  Ag139     1.0  0.25000  0.12500  0.43663  1.0000
  Ag  Ag140     1.0  0.37500  0.12500  0.43663  1.0000
  Ag  Ag141     1.0  0.50000  0.12500  0.43663  1.0000
  Ag  Ag142     1.0  0.62500  0.12500  0.43663  1.0000
  Ag  Ag143     1.0  0.75000  0.12500  0.43663  1.0000
  Ag  Ag144     1.0  0.87500  0.12500  0.43663  1.0000
  Ag  Ag145     1.0  0.00000  0.25000  0.43663  1.0000
  Ag  Ag146     1.0  0.12500  0.25000  0.43663  1.0000
  Ag  Ag147     1.0  0.25000  0.25000  0.43663  1.0000
  Ag  Ag148     1.0  0.37500  0.25000  0.43663  1.0000
  Ag  Ag149     1.0  0.50000  0.25000  0.43663  1.0000
  Ag  Ag150     1.0  0.62500  0.25000  0.43663  1.0000
  Ag  Ag151     1.0  0.75000  0.25000  0.43663  1.0000
  Ag  Ag152     1.0  0.87500  0.25000  0.43663  1.0000
  Ag  Ag153     1.0  0.00000  0.37500  0.43663  1.0000
  Ag  Ag154     1.0  0.12500  0.37500  0.43663  1.0000
  Ag  Ag155     1.0  0.25000  0.37500  0.43663  1.0000
  Ag  Ag156     1.0  0.37500  0.37500  0.43663  1.0000
  Ag  Ag157     1.0  0.50000  0.37500  0.43663  1.0000
  Ag  Ag158     1.0  0.62500  0.37500  0.43663  1.0000
  Ag  Ag159     1.0  0.75000  0.37500  0.43663  1.0000
  Ag  Ag160     1.0  0.87500  0.37500  0.43663  1.0000
  Ag  Ag161     1.0  0.00000  0.50000  0.43663  1.0000
  Ag  Ag162     1.0  0.12500  0.50000  0.43663  1.0000
  Ag  Ag163     1.0  0.25000  0.50000  0.43663  1.0000
  Ag  Ag164     1.0  0.37500  0.50000  0.43663  1.0000
  Ag  Ag165     1.0  0.50000  0.50000  0.43663  1.0000
  Ag  Ag166     1.0  0.62500  0.50000  0.43663  1.0000
  Ag  Ag167     1.0  0.75000  0.50000  0.43663  1.0000
  Ag  Ag168     1.0  0.87500  0.50000  0.43663  1.0000
  Ag  Ag169     1.0  0.00000  0.62500  0.43663  1.0000
  Ag  Ag170     1.0  0.12500  0.62500  0.43663  1.0000
  Ag  Ag171     1.0  0.25000  0.62500  0.43663  1.0000
  Ag  Ag172     1.0  0.37500  0.62500  0.43663  1.0000
  Ag  Ag173     1.0  0.50000  0.62500  0.43663  1.0000
  Ag  Ag174     1.0  0.62500  0.62500  0.43663  1.0000
  Ag  Ag175     1.0  0.75000  0.62500  0.43663  1.0000
  Ag  Ag176     1.0  0.87500  0.62500  0.43663  1.0000
  Ag  Ag177     1.0  0.00000  0.75000  0.43663  1.0000
  Ag  Ag178     1.0  0.12500  0.75000  0.43663  1.0000
  Ag  Ag179     1.0  0.25000  0.75000  0.43663  1.0000
  Ag  Ag180     1.0  0.37500  0.75000  0.43663  1.0000
  Ag  Ag181     1.0  0.50000  0.75000  0.43663  1.0000
  Ag  Ag182     1.0  0.62500  0.75000  0.43663  1.0000
  Ag  Ag183     1.0  0.75000  0.75000  0.43663  1.0000
  Ag  Ag184     1.0  0.87500  0.75000  0.43663  1.0000
  Ag  Ag185     1.0  0.00000  0.87500  0.43663  1.0000
  Ag  Ag186     1.0  0.12500  0.87500  0.43663  1.0000
  Ag  Ag187     1.0  0.25000  0.87500  0.43663  1.0000
  Ag  Ag188     1.0  0.37500  0.87500  0.43663  1.0000
  Ag  Ag189     1.0  0.50000  0.87500  0.43663  1.0000
  Ag  Ag190     1.0  0.62500  0.87500  0.43663  1.0000
  Ag  Ag191     1.0  0.75000  0.87500  0.43663  1.0000
  Ag  Ag192     1.0  0.87500  0.87500  0.43663  1.0000
  Ag  Ag193     1.0  0.06250  0.06250  0.50000  1.0000
  Ag  Ag194     1.0  0.18750  0.06250  0.50000  1.0000
  Ag  Ag195     1.0  0.31250  0.06250  0.50000  1.0000
  Ag  Ag196     1.0  0.43750  0.06250  0.50000  1.0000
  Ag  Ag197     1.0  0.56250  0.06250  0.50000  1.0000
  Ag  Ag198     1.0  0.68750  0.06250  0.50000  1.0000
  Ag  Ag199     1.0  0.81250  0.06250  0.50000  1.0000
  Ag  Ag200     1.0  0.93750  0.06250  0.50000  1.0000
  Ag  Ag201     1.0  0.06250  0.18750  0.50000  1.0000
  Ag  Ag202     1.0  0.18750  0.18750  0.50000  1.0000
  Ag  Ag203     1.0  0.31250  0.18750  0.50000  1.0000
  Ag  Ag204     1.0  0.43750  0.18750  0.50000  1.0000
  Ag  Ag205     1.0  0.56250  0.18750  0.50000  1.0000
  Ag  Ag206     1.0  0.68750  0.18750  0.50000  1.0000
  Ag  Ag207     1.0  0.81250  0.18750  0.50000  1.0000
  Ag  Ag208     1.0  0.93750  0.18750  0.50000  1.0000
  Ag  Ag209     1.0  0.06250  0.31250  0.50000  1.0000
  Ag  Ag210     1.0  0.18750  0.31250  0.50000  1.0000
  Ag  Ag211     1.0  0.31250  0.31250  0.50000  1.0000
  Ag  Ag212     1.0  0.43750  0.31250  0.50000  1.0000
  Ag  Ag213     1.0  0.56250  0.31250  0.50000  1.0000
  Ag  Ag214     1.0  0.68750  0.31250  0.50000  1.0000
  Ag  Ag215     1.0  0.81250  0.31250  0.50000  1.0000
  Ag  Ag216     1.0  0.93750  0.31250  0.50000  1.0000
  Ag  Ag217     1.0  0.06250  0.43750  0.50000  1.0000
  Ag  Ag218     1.0  0.18750  0.43750  0.50000  1.0000
  Ag  Ag219     1.0  0.31250  0.43750  0.50000  1.0000
  Ag  Ag220     1.0  0.43750  0.43750  0.50000  1.0000
  Ag  Ag221     1.0  0.56250  0.43750  0.50000  1.0000
  Ag  Ag222     1.0  0.68750  0.43750  0.50000  1.0000
  Ag  Ag223     1.0  0.81250  0.43750  0.50000  1.0000
  Ag  Ag224     1.0  0.93750  0.43750  0.50000  1.0000
  Ag  Ag225     1.0  0.06250  0.56250  0.50000  1.0000
  Ag  Ag226     1.0  0.18750  0.56250  0.50000  1.0000
  Ag  Ag227     1.0  0.31250  0.56250  0.50000  1.0000
  Ag  Ag228     1.0  0.43750  0.56250  0.50000  1.0000
  Ag  Ag229     1.0  0.56250  0.56250  0.50000  1.0000
  Ag  Ag230     1.0  0.68750  0.56250  0.50000  1.0000
  Ag  Ag231     1.0  0.81250  0.56250  0.50000  1.0000
  Ag  Ag232     1.0  0.93750  0.56250  0.50000  1.0000
  Ag  Ag233     1.0  0.06250  0.68750  0.50000  1.0000
  Ag  Ag234     1.0  0.18750  0.68750  0.50000  1.0000
  Ag  Ag235     1.0  0.31250  0.68750  0.50000  1.0000
  Ag  Ag236     1.0  0.43750  0.68750  0.50000  1.0000
  Ag  Ag237     1.0  0.56250  0.68750  0.50000  1.0000
  Ag  Ag238     1.0  0.68750  0.68750  0.50000  1.0000
  Ag  Ag239     1.0  0.81250  0.68750  0.50000  1.0000
  Ag  Ag240     1.0  0.93750  0.68750  0.50000  1.0000
  Ag  Ag241     1.0  0.06250  0.81250  0.50000  1.0000
  Ag  Ag242     1.0  0.18750  0.81250  0.50000  1.0000
  Ag  Ag243     1.0  0.31250  0.81250  0.50000  1.0000
  Ag  Ag244     1.0  0.43750  0.81250  0.50000  1.0000
  Ag  Ag245     1.0  0.56250  0.81250  0.50000  1.0000
  Ag  Ag246     1.0  0.68750  0.81250  0.50000  1.0000
  Ag  Ag247     1.0  0.81250  0.81250  0.50000  1.0000
  Ag  Ag248     1.0  0.93750  0.81250  0.50000  1.0000
  Ag  Ag249     1.0  0.06250  0.93750  0.50000  1.0000
  Ag  Ag250     1.0  0.18750  0.93750  0.50000  1.0000
  Ag  Ag251     1.0  0.31250  0.93750  0.50000  1.0000
  Ag  Ag252     1.0  0.43750  0.93750  0.50000  1.0000
  Ag  Ag253     1.0  0.56250  0.93750  0.50000  1.0000
  Ag  Ag254     1.0  0.68750  0.93750  0.50000  1.0000
  Ag  Ag255     1.0  0.81250  0.93750  0.50000  1.0000
  Ag  Ag256     1.0  0.93750  0.93750  0.50000  1.0000
  Ag  Ag257     1.0  0.00000  0.00000  0.56337  1.0000
  Ag  Ag258     1.0  0.12500  0.00000  0.56337  1.0000
  Ag  Ag259     1.0  0.25000  0.00000  0.56337  1.0000
  Ag  Ag260     1.0  0.37500  0.00000  0.56337  1.0000
  Ag  Ag261     1.0  0.50000  0.00000  0.56337  1.0000
  Ag  Ag262     1.0  0.62500  0.00000  0.56337  1.0000
  Ag  Ag263     1.0  0.75000  0.00000  0.56337  1.0000
  Ag  Ag264     1.0  0.87500  0.00000  0.56337  1.0000
  Ag  Ag265     1.0  0.00000  0.12500  0.56337  1.0000
  Ag  Ag266     1.0  0.12500  0.12500  0.56337  1.0000
  Ag  Ag267     1.0  0.25000  0.12500  0.56337  1.0000
  Ag  Ag268     1.0  0.37500  0.12500  0.56337  1.0000
  Ag  Ag269     1.0  0.50000  0.12500  0.56337  1.0000
  Ag  Ag270     1.0  0.62500  0.12500  0.56337  1.0000
  Ag  Ag271     1.0  0.75000  0.12500  0.56337  1.0000
  Ag  Ag272     1.0  0.87500  0.12500  0.56337  1.0000
  Ag  Ag273     1.0  0.00000  0.25000  0.56337  1.0000
  Ag  Ag274     1.0  0.12500  0.25000  0.56337  1.0000
  Ag  Ag275     1.0  0.25000  0.25000  0.56337  1.0000
  Ag  Ag276     1.0  0.37500  0.25000  0.56337  1.0000
  Ag  Ag277     1.0  0.50000  0.25000  0.56337  1.0000
  Ag  Ag278     1.0  0.62500  0.25000  0.56337  1.0000
  Ag  Ag279     1.0  0.75000  0.25000  0.56337  1.0000
  Ag  Ag280     1.0  0.87500  0.25000  0.56337  1.0000
  Ag  Ag281     1.0  0.00000  0.37500  0.56337  1.0000
  Ag  Ag282     1.0  0.12500  0.37500  0.56337  1.0000
  Ag  Ag283     1.0  0.25000  0.37500  0.56337  1.0000
  Ag  Ag284     1.0  0.37500  0.37500  0.56337  1.0000
  Ag  Ag285     1.0  0.50000  0.37500  0.56337  1.0000
  Ag  Ag286     1.0  0.62500  0.37500  0.56337  1.0000
  Ag  Ag287     1.0  0.75000  0.37500  0.56337  1.0000
  Ag  Ag288     1.0  0.87500  0.37500  0.56337  1.0000
  Ag  Ag289     1.0  0.00000  0.50000  0.56337  1.0000
  Ag  Ag290     1.0  0.12500  0.50000  0.56337  1.0000
  Ag  Ag291     1.0  0.25000  0.50000  0.56337  1.0000
  Ag  Ag292     1.0  0.37500  0.50000  0.56337  1.0000
  Ag  Ag293     1.0  0.50000  0.50000  0.56337  1.0000
  Ag  Ag294     1.0  0.62500  0.50000  0.56337  1.0000
  Ag  Ag295     1.0  0.75000  0.50000  0.56337  1.0000
  Ag  Ag296     1.0  0.87500  0.50000  0.56337  1.0000
  Ag  Ag297     1.0  0.00000  0.62500  0.56337  1.0000
  Ag  Ag298     1.0  0.12500  0.62500  0.56337  1.0000
  Ag  Ag299     1.0  0.25000  0.62500  0.56337  1.0000
  Ag  Ag300     1.0  0.37500  0.62500  0.56337  1.0000
  Ag  Ag301     1.0  0.50000  0.62500  0.56337  1.0000
  Ag  Ag302     1.0  0.62500  0.62500  0.56337  1.0000
  Ag  Ag303     1.0  0.75000  0.62500  0.56337  1.0000
  Ag  Ag304     1.0  0.87500  0.62500  0.56337  1.0000
  Ag  Ag305     1.0  0.00000  0.75000  0.56337  1.0000
  Ag  Ag306     1.0  0.12500  0.75000  0.56337  1.0000
  Ag  Ag307     1.0  0.25000  0.75000  0.56337  1.0000
  Ag  Ag308     1.0  0.37500  0.75000  0.56337  1.0000
  Ag  Ag309     1.0  0.50000  0.75000  0.56337  1.0000
  Ag  Ag310     1.0  0.62500  0.75000  0.56337  1.0000
  Ag  Ag311     1.0  0.75000  0.75000  0.56337  1.0000
  Ag  Ag312     1.0  0.87500  0.75000  0.56337  1.0000
  Ag  Ag313     1.0  0.00000  0.87500  0.56337  1.0000
  Ag  Ag314     1.0  0.12500  0.87500  0.56337  1.0000
  Ag  Ag315     1.0  0.25000  0.87500  0.56337  1.0000
  Ag  Ag316     1.0  0.37500  0.87500  0.56337  1.0000
  Ag  Ag317     1.0  0.50000  0.87500  0.56337  1.0000
  Ag  Ag318     1.0  0.62500  0.87500  0.56337  1.0000
  Ag  Ag319     1.0  0.75000  0.87500  0.56337  1.0000
  Ag  Ag320     1.0  0.87500  0.87500  0.56337  1.0000
  Ag  Ag321     1.0  0.06250  0.06250  0.62674  1.0000
  Ag  Ag322     1.0  0.18750  0.06250  0.62674  1.0000
  Ag  Ag323     1.0  0.31250  0.06250  0.62674  1.0000
  Ag  Ag324     1.0  0.43750  0.06250  0.62674  1.0000
  Ag  Ag325     1.0  0.56250  0.06250  0.62674  1.0000
  Ag  Ag326     1.0  0.68750  0.06250  0.62674  1.0000
  Ag  Ag327     1.0  0.81250  0.06250  0.62674  1.0000
  Ag  Ag328     1.0  0.93750  0.06250  0.62674  1.0000
  Ag  Ag329     1.0  0.06250  0.18750  0.62674  1.0000
  Ag  Ag330     1.0  0.18750  0.18750  0.62674  1.0000
  Ag  Ag331     1.0  0.31250  0.18750  0.62674  1.0000
  Ag  Ag332     1.0  0.43750  0.18750  0.62674  1.0000
  Ag  Ag333     1.0  0.56250  0.18750  0.62674  1.0000
  Ag  Ag334     1.0  0.68750  0.18750  0.62674  1.0000
  Ag  Ag335     1.0  0.81250  0.18750  0.62674  1.0000
  Ag  Ag336     1.0  0.93750  0.18750  0.62674  1.0000
  Ag  Ag337     1.0  0.06250  0.31250  0.62674  1.0000
  Ag  Ag338     1.0  0.18750  0.31250  0.62674  1.0000
  Ag  Ag339     1.0  0.31250  0.31250  0.62674  1.0000
  Ag  Ag340     1.0  0.43750  0.31250  0.62674  1.0000
  Ag  Ag341     1.0  0.56250  0.31250  0.62674  1.0000
  Ag  Ag342     1.0  0.68750  0.31250  0.62674  1.0000
  Ag  Ag343     1.0  0.81250  0.31250  0.62674  1.0000
  Ag  Ag344     1.0  0.93750  0.31250  0.62674  1.0000
  Ag  Ag345     1.0  0.06250  0.43750  0.62674  1.0000
  Ag  Ag346     1.0  0.18750  0.43750  0.62674  1.0000
  Ag  Ag347     1.0  0.31250  0.43750  0.62674  1.0000
  Ag  Ag348     1.0  0.43750  0.43750  0.62674  1.0000
  Ag  Ag349     1.0  0.56250  0.43750  0.62674  1.0000
  Ag  Ag350     1.0  0.68750  0.43750  0.62674  1.0000
  Ag  Ag351     1.0  0.81250  0.43750  0.62674  1.0000
  Ag  Ag352     1.0  0.93750  0.43750  0.62674  1.0000
  Ag  Ag353     1.0  0.06250  0.56250  0.62674  1.0000
  Ag  Ag354     1.0  0.18750  0.56250  0.62674  1.0000
  Ag  Ag355     1.0  0.31250  0.56250  0.62674  1.0000
  Ag  Ag356     1.0  0.43750  0.56250  0.62674  1.0000
  Ag  Ag357     1.0  0.56250  0.56250  0.62674  1.0000
  Ag  Ag358     1.0  0.68750  0.56250  0.62674  1.0000
  Ag  Ag359     1.0  0.81250  0.56250  0.62674  1.0000
  Ag  Ag360     1.0  0.93750  0.56250  0.62674  1.0000
  Ag  Ag361     1.0  0.06250  0.68750  0.62674  1.0000
  Ag  Ag362     1.0  0.18750  0.68750  0.62674  1.0000
  Ag  Ag363     1.0  0.31250  0.68750  0.62674  1.0000
  Ag  Ag364     1.0  0.43750  0.68750  0.62674  1.0000
  Ag  Ag365     1.0  0.56250  0.68750  0.62674  1.0000
  Ag  Ag366     1.0  0.68750  0.68750  0.62674  1.0000
  Ag  Ag367     1.0  0.81250  0.68750  0.62674  1.0000
  Ag  Ag368     1.0  0.93750  0.68750  0.62674  1.0000
  Ag  Ag369     1.0  0.06250  0.81250  0.62674  1.0000
  Ag  Ag370     1.0  0.18750  0.81250  0.62674  1.0000
  Ag  Ag371     1.0  0.31250  0.81250  0.62674  1.0000
  Ag  Ag372     1.0  0.43750  0.81250  0.62674  1.0000
  Ag  Ag373     1.0  0.56250  0.81250  0.62674  1.0000
  Ag  Ag374     1.0  0.68750  0.81250  0.62674  1.0000
  Ag  Ag375     1.0  0.81250  0.81250  0.62674  1.0000
  Ag  Ag376     1.0  0.93750  0.81250  0.62674  1.0000
  Ag  Ag377     1.0  0.06250  0.93750  0.62674  1.0000
  Ag  Ag378     1.0  0.18750  0.93750  0.62674  1.0000
  Ag  Ag379     1.0  0.31250  0.93750  0.62674  1.0000
  Ag  Ag380     1.0  0.43750  0.93750  0.62674  1.0000
  Ag  Ag381     1.0  0.56250  0.93750  0.62674  1.0000
  Ag  Ag382     1.0  0.68750  0.93750  0.62674  1.0000
  Ag  Ag383     1.0  0.81250  0.93750  0.62674  1.0000
  Ag  Ag384     1.0  0.93750  0.93750  0.62674  1.0000
  Ag  Ag385     1.0  0.00000  0.00000  0.69011  1.0000
  Ag  Ag386     1.0  0.12500  0.00000  0.69011  1.0000
  Ag  Ag387     1.0  0.25000  0.00000  0.69011  1.0000
  Ag  Ag388     1.0  0.37500  0.00000  0.69011  1.0000
  Ag  Ag389     1.0  0.50000  0.00000  0.69011  1.0000
  Ag  Ag390     1.0  0.62500  0.00000  0.69011  1.0000
  Ag  Ag391     1.0  0.75000  0.00000  0.69011  1.0000
  Ag  Ag392     1.0  0.87500  0.00000  0.69011  1.0000
  Ag  Ag393     1.0  0.00000  0.12500  0.69011  1.0000
  Ag  Ag394     1.0  0.12500  0.12500  0.69011  1.0000
  Ag  Ag395     1.0  0.25000  0.12500  0.69011  1.0000
  Ag  Ag396     1.0  0.37500  0.12500  0.69011  1.0000
  Ag  Ag397     1.0  0.50000  0.12500  0.69011  1.0000
  Ag  Ag398     1.0  0.62500  0.12500  0.69011  1.0000
  Ag  Ag399     1.0  0.75000  0.12500  0.69011  1.0000
  Ag  Ag400     1.0  0.87500  0.12500  0.69011  1.0000
  Ag  Ag401     1.0  0.00000  0.25000  0.69011  1.0000
  Ag  Ag402     1.0  0.12500  0.25000  0.69011  1.0000
  Ag  Ag403     1.0  0.25000  0.25000  0.69011  1.0000
  Ag  Ag404     1.0  0.37500  0.25000  0.69011  1.0000
  Ag  Ag405     1.0  0.50000  0.25000  0.69011  1.0000
  Ag  Ag406     1.0  0.62500  0.25000  0.69011  1.0000
  Ag  Ag407     1.0  0.75000  0.25000  0.69011  1.0000
  Ag  Ag408     1.0  0.87500  0.25000  0.69011  1.0000
  Ag  Ag409     1.0  0.00000  0.37500  0.69011  1.0000
  Ag  Ag410     1.0  0.12500  0.37500  0.69011  1.0000
  Ag  Ag411     1.0  0.25000  0.37500  0.69011  1.0000
  Ag  Ag412     1.0  0.37500  0.37500  0.69011  1.0000
  Ag  Ag413     1.0  0.50000  0.37500  0.69011  1.0000
  Ag  Ag414     1.0  0.62500  0.37500  0.69011  1.0000
  Ag  Ag415     1.0  0.75000  0.37500  0.69011  1.0000
  Ag  Ag416     1.0  0.87500  0.37500  0.69011  1.0000
  Ag  Ag417     1.0  0.00000  0.50000  0.69011  1.0000
  Ag  Ag418     1.0  0.12500  0.50000  0.69011  1.0000
  Ag  Ag419     1.0  0.25000  0.50000  0.69011  1.0000
  Ag  Ag420     1.0  0.37500  0.50000  0.69011  1.0000
  Ag  Ag421     1.0  0.50000  0.50000  0.69011  1.0000
  Ag  Ag422     1.0  0.62500  0.50000  0.69011  1.0000
  Ag  Ag423     1.0  0.75000  0.50000  0.69011  1.0000
  Ag  Ag424     1.0  0.87500  0.50000  0.69011  1.0000
  Ag  Ag425     1.0  0.00000  0.62500  0.69011  1.0000
  Ag  Ag426     1.0  0.12500  0.62500  0.69011  1.0000
  Ag  Ag427     1.0  0.25000  0.62500  0.69011  1.0000
  Ag  Ag428     1.0  0.37500  0.62500  0.69011  1.0000
  Ag  Ag429     1.0  0.50000  0.62500  0.69011  1.0000
  Ag  Ag430     1.0  0.62500  0.62500  0.69011  1.0000
  Ag  Ag431     1.0  0.75000  0.62500  0.69011  1.0000
  Ag  Ag432     1.0  0.87500  0.62500  0.69011  1.0000
  Ag  Ag433     1.0  0.00000  0.75000  0.69011  1.0000
  Ag  Ag434     1.0  0.12500  0.75000  0.69011  1.0000
  Ag  Ag435     1.0  0.25000  0.75000  0.69011  1.0000
  Ag  Ag436     1.0  0.37500  0.75000  0.69011  1.0000
  Ag  Ag437     1.0  0.50000  0.75000  0.69011  1.0000
  Ag  Ag438     1.0  0.62500  0.75000  0.69011  1.0000
  Ag  Ag439     1.0  0.75000  0.75000  0.69011  1.0000
  Ag  Ag440     1.0  0.87500  0.75000  0.69011  1.0000
  Ag  Ag441     1.0  0.00000  0.87500  0.69011  1.0000
  Ag  Ag442     1.0  0.12500  0.87500  0.69011  1.0000
  Ag  Ag443     1.0  0.25000  0.87500  0.69011  1.0000
  Ag  Ag444     1.0  0.37500  0.87500  0.69011  1.0000
  Ag  Ag445     1.0  0.50000  0.87500  0.69011  1.0000
  Ag  Ag446     1.0  0.62500  0.87500  0.69011  1.0000
  Ag  Ag447     1.0  0.75000  0.87500  0.69011  1.0000
  Ag  Ag448     1.0  0.87500  0.87500  0.69011  1.0000
